** MOSFET Inverter (Transient): Benchmarking Implementation of BSIM4 by Jane Xi 05/09/2003.

*** circuit description ***
m1 out in 0 0 n1 L=0.09u W=10.0u rgeoMod=1 off
m2 out in d d p1 L=0.09u W=10.0u rgeoMod=1 off
Vd d 0 dc 2.0
vin in 0 pulse(0 2 2ns 2ns 2ns 10ns 20ns)

.tran 0 20ns 0.01ns

.option reltol=1e-5
.print tran v(in) v(out)

.include modelcard.nmos
.include modelcard.pmos
.end





